Version 4
SHEET 1 3344 680
WIRE 1024 -224 944 -224
WIRE 944 -192 944 -224
WIRE 1024 -160 1024 -224
WIRE 1056 -160 1024 -160
WIRE 1120 -160 1056 -160
WIRE 1248 -160 1184 -160
WIRE 1248 -144 1248 -160
WIRE 1248 -144 1184 -144
WIRE 1328 -144 1248 -144
WIRE 1248 -128 1248 -144
WIRE 352 -112 96 -112
WIRE 480 -112 352 -112
WIRE 1056 -112 1056 -160
WIRE 352 -64 352 -112
WIRE 944 -64 944 -112
WIRE 1152 -64 1152 -96
WIRE 1248 -32 1248 -80
WIRE 1056 -16 1056 -48
WIRE 352 64 352 16
WIRE 2096 64 1936 64
WIRE 2368 64 2176 64
WIRE 352 160 352 144
WIRE 352 160 176 160
WIRE 2368 160 2368 64
WIRE 352 192 352 160
WIRE 400 192 352 192
WIRE 1120 192 1120 144
WIRE 1120 192 944 192
WIRE 1808 192 1760 192
WIRE 1936 192 1936 64
WIRE 1936 192 1888 192
WIRE 1984 192 1936 192
WIRE 2128 192 2048 192
WIRE 2224 192 2128 192
WIRE 2368 208 2368 160
WIRE 2368 208 2288 208
WIRE 320 224 240 224
WIRE 1200 224 1072 224
WIRE 2224 224 2208 224
WIRE 176 240 96 240
WIRE 1936 240 1936 192
WIRE 96 272 96 240
WIRE 240 272 240 224
WIRE 400 272 400 192
WIRE 1120 272 1120 192
WIRE 2208 272 2208 224
WIRE 2256 272 2208 272
WIRE 1072 288 1072 224
WIRE 1088 288 1072 288
WIRE 1200 304 1200 224
WIRE 1200 304 1152 304
WIRE 1264 304 1200 304
WIRE 2128 304 2128 272
WIRE 2128 304 1936 304
WIRE 2144 304 2128 304
WIRE 2256 304 2256 272
WIRE 2256 304 2224 304
WIRE 2368 304 2368 288
WIRE 2368 304 2256 304
WIRE 944 320 944 272
WIRE 1088 320 944 320
WIRE 1120 336 1104 336
WIRE 944 352 944 320
WIRE 176 368 176 240
WIRE 240 368 240 352
WIRE 240 368 176 368
WIRE 320 384 320 224
WIRE 400 384 400 352
WIRE 400 384 320 384
WIRE 2128 400 2128 304
WIRE 1072 432 944 432
WIRE 1104 432 1104 336
WIRE 1104 432 1072 432
WIRE 96 448 96 352
WIRE 1072 464 1072 432
FLAG 96 448 0
FLAG 480 -112 Sensor
IOPIN 480 -112 In
FLAG 944 -64 0
FLAG 1056 -16 0
FLAG 1248 -32 0
FLAG 1328 -144 5V
IOPIN 1328 -144 In
FLAG 1120 144 5V
IOPIN 1120 144 Out
FLAG 1072 464 0
FLAG 1264 304 vground
IOPIN 1264 304 In
FLAG 1152 -64 0
FLAG 2256 176 0
FLAG 2368 160 out
IOPIN 2368 160 In
FLAG 1760 192 Sensor
IOPIN 1760 192 Out
FLAG 2256 240 5V
IOPIN 2256 240 Out
FLAG 2128 400 vground
IOPIN 2128 400 Out
SYMBOL voltage 96 256 R0
WINDOW 123 24 124 Left 2
WINDOW 39 0 0 Left 0
SYMATTR Value2 AC 1
SYMATTR InstName V1
SYMATTR Value SINE(2 10m 1)
SYMBOL voltage 240 256 R0
WINDOW 123 0 0 Left 0
WINDOW 39 0 0 Left 0
SYMATTR InstName V2
SYMATTR Value SINE(0 0 2)
SYMBOL voltage 400 256 R0
WINDOW 123 0 0 Left 0
WINDOW 39 0 0 Left 0
SYMATTR InstName V3
SYMATTR Value SINE(0 0 3)
SYMBOL voltage 352 48 R0
WINDOW 123 0 0 Left 0
WINDOW 39 0 0 Left 0
SYMATTR InstName V4
SYMATTR Value SINE(0 20m 250m)
SYMBOL voltage 352 -80 R0
WINDOW 123 0 0 Left 0
WINDOW 39 0 0 Left 0
SYMATTR InstName V5
SYMATTR Value SINE(0 20m 50)
SYMBOL voltage 944 -208 R0
WINDOW 123 0 0 Left 0
WINDOW 39 0 0 Left 0
SYMATTR InstName V6
SYMATTR Value 9
SYMBOL cap 1232 -144 R0
SYMATTR InstName C2
SYMATTR Value 300n
SYMBOL cap 1040 -112 R0
SYMATTR InstName C1
SYMATTR Value 300n
SYMBOL res 928 176 R0
SYMATTR InstName R1
SYMATTR Value 300k
SYMBOL res 928 336 R0
SYMATTR InstName R2
SYMATTR Value 200k
SYMBOL Opamps\\opamp2 1120 240 R0
SYMATTR InstName U2
SYMATTR Value TL081
SYMBOL LM7805 1152 -144 R0
SYMATTR InstName U1
SYMBOL res 1904 176 R90
WINDOW 0 0 56 VBottom 2
WINDOW 3 32 56 VTop 2
SYMATTR InstName R3
SYMATTR Value 250k
SYMBOL cap 1920 240 R0
SYMATTR InstName C3
SYMATTR Value 1µ
SYMBOL cap 2048 176 R90
WINDOW 0 0 32 VBottom 2
WINDOW 3 32 32 VTop 2
SYMATTR InstName C4
SYMATTR Value 1µ
SYMBOL res 2192 48 R90
WINDOW 0 0 56 VBottom 2
WINDOW 3 32 56 VTop 2
SYMATTR InstName R4
SYMATTR Value 250k
SYMBOL res 2112 176 R0
SYMATTR InstName R5
SYMATTR Value 80k
SYMBOL Opamps\\opamp2 2256 272 M180
SYMATTR InstName U3
SYMATTR Value TL081
SYMBOL res 2352 192 R0
SYMATTR InstName R6
SYMATTR Value 500k
SYMBOL res 2240 288 R90
WINDOW 0 0 56 VBottom 2
WINDOW 3 32 56 VTop 2
SYMATTR InstName R7
SYMATTR Value 100k
TEXT 64 488 Left 2 !;tran 10
TEXT 640 -184 Left 2 !.incl TL081.lib
TEXT 632 -232 Left 2 !.incl TLC2272.lib
TEXT 2024 544 Left 2 !.ac lin 1000 0.5 3
