Version 4
SHEET 1 1824 680
WIRE -1264 -1264 -1360 -1264
WIRE -1216 -1264 -1264 -1264
WIRE -400 -1200 -400 -1216
WIRE -400 -1200 -432 -1200
WIRE -688 -1184 -736 -1184
WIRE -624 -1184 -688 -1184
WIRE -496 -1184 -544 -1184
WIRE -688 -1168 -688 -1184
WIRE -384 -1168 -432 -1168
WIRE -192 -1168 -384 -1168
WIRE -384 -1152 -384 -1168
WIRE -1424 -1136 -1456 -1136
WIRE -1264 -1136 -1264 -1264
WIRE -1264 -1136 -1344 -1136
WIRE -1264 -1104 -1264 -1136
WIRE -1840 -1072 -1888 -1072
WIRE -688 -1072 -688 -1104
WIRE -384 -1072 -384 -1088
WIRE -2032 -1056 -2080 -1056
WIRE -1936 -1056 -1984 -1056
WIRE -1888 -1056 -1888 -1072
WIRE -896 -1040 -896 -1056
WIRE -1264 -1008 -1264 -1024
WIRE -2032 -976 -2032 -1056
WIRE -1984 -976 -2032 -976
WIRE -1936 -976 -1936 -1056
WIRE -1888 -976 -1936 -976
WIRE -2080 -960 -2080 -976
WIRE -736 -800 -784 -800
WIRE -512 -800 -656 -800
WIRE -2032 -768 -2096 -768
WIRE -2032 -720 -2032 -768
WIRE -1920 -720 -1952 -720
WIRE -912 -688 -1104 -688
WIRE -784 -688 -784 -800
WIRE -784 -688 -832 -688
WIRE -784 -672 -784 -688
WIRE -704 -672 -784 -672
WIRE -512 -656 -512 -800
WIRE -512 -656 -640 -656
WIRE -496 -656 -512 -656
WIRE -704 -640 -768 -640
WIRE -1888 -608 -1936 -608
WIRE -912 -592 -960 -592
WIRE -816 -592 -832 -592
WIRE -768 -592 -768 -640
WIRE -768 -592 -816 -592
WIRE -768 -576 -768 -592
WIRE -1184 -528 -1216 -528
WIRE -1088 -528 -1104 -528
WIRE -992 -528 -1088 -528
WIRE -960 -528 -960 -592
WIRE -960 -528 -992 -528
WIRE -1088 -464 -1088 -528
WIRE -992 -464 -992 -528
WIRE -816 -464 -816 -592
WIRE -768 -464 -768 -496
WIRE -720 -464 -768 -464
WIRE -672 -464 -672 -624
WIRE -672 -464 -720 -464
WIRE -720 -448 -720 -464
WIRE -1728 -384 -2064 -384
WIRE -992 -384 -992 -400
WIRE -992 -384 -1088 -384
WIRE -816 -384 -816 -400
WIRE -816 -384 -992 -384
WIRE -1088 -352 -1088 -384
WIRE -2256 -320 -2288 -320
WIRE -2128 -320 -2128 -384
WIRE -2128 -320 -2176 -320
WIRE -2032 -320 -2128 -320
WIRE -1728 -320 -1728 -384
WIRE -1728 -320 -1952 -320
WIRE -2288 -288 -2288 -320
WIRE -2128 -240 -2128 -320
WIRE -1968 -240 -2128 -240
WIRE -2288 -160 -2336 -160
WIRE -2208 -160 -2288 -160
WIRE -1968 -160 -1968 -240
WIRE -1968 -160 -2000 -160
WIRE -2208 -128 -2256 -128
WIRE -1888 -128 -2000 -128
WIRE -1856 -128 -1888 -128
WIRE -1728 -128 -1728 -320
WIRE -1728 -128 -1776 -128
WIRE -1600 -128 -1728 -128
WIRE -2256 -96 -2256 -128
WIRE -2256 -96 -2288 -96
WIRE -2208 -96 -2256 -96
WIRE -1968 -96 -2000 -96
WIRE -1888 -96 -1888 -128
WIRE -1600 -96 -1600 -128
WIRE -1968 -80 -1968 -96
WIRE -2288 -16 -2288 -96
WIRE -1888 -16 -1888 -32
WIRE -1728 -16 -1728 -64
FLAG -2080 -960 0
FLAG -1840 -1072 Stimulus
FLAG -1920 -720 9V
IOPIN -1920 -720 Out
FLAG -2096 -688 0
FLAG -1600 -1264 9V
IOPIN -1600 -1264 In
FLAG -1888 -608 Vout
IOPIN -1888 -608 Out
FLAG -1264 -1008 0
FLAG -2288 -16 0
FLAG -1888 -16 0
FLAG -1968 -80 0
FLAG -1728 -16 0
FLAG -2288 -288 0
FLAG -1600 -16 0
FLAG -400 -1216 0
FLAG -688 -1072 0
FLAG -384 -1072 0
FLAG -1584 -1136 Stimulus
FLAG -1408 -576 Stimulus
FLAG -720 -448 0
FLAG -672 -688 5V
IOPIN -672 -688 Out
FLAG -736 -1184 9V
IOPIN -736 -1184 In
FLAG -496 -656 Vout
IOPIN -496 -656 Out
FLAG -192 -1168 5V
IOPIN -192 -1168 In
FLAG -896 -1040 0
FLAG -1216 -528 5V
IOPIN -1216 -528 Out
FLAG -1088 -352 0
FLAG -1104 -608 0
SYMBOL voltage -1984 -1072 R0
WINDOW 123 0 0 Left 0
WINDOW 39 0 0 Left 0
WINDOW 3 -89 197 Left 2
WINDOW 0 -13 54 Left 2
SYMATTR Value PWL file=PWLinput.csv
SYMATTR InstName V2
SYMBOL voltage -1888 -1072 R0
WINDOW 123 24 44 Left 2
WINDOW 39 0 0 Left 0
WINDOW 3 -386 233 Left 2
WINDOW 0 -11 56 Left 2
SYMATTR Value SINE({sineOffset} {sineAmplitude} {sineFreq})
SYMATTR InstName V3
SYMBOL voltage -2080 -1072 R0
WINDOW 123 0 0 Left 0
WINDOW 39 0 0 Left 0
WINDOW 3 3 160 Left 2
WINDOW 0 -13 55 Left 2
SYMATTR Value {dcAmplitude}
SYMATTR InstName V1
SYMBOL voltage -2096 -784 R0
WINDOW 123 24 44 Left 2
WINDOW 39 0 0 Left 0
WINDOW 3 -46 76 Left 2
WINDOW 0 -13 57 Left 2
SYMATTR Value 9
SYMATTR InstName V4
SYMBOL res -1936 -736 R90
WINDOW 0 -9 30 VBottom 2
WINDOW 3 34 56 VTop 2
SYMATTR InstName R_Sense
SYMATTR Value 0.010
SYMBOL res -1456 -1248 R270
WINDOW 0 32 56 VTop 2
WINDOW 3 0 56 VBottom 2
SYMATTR InstName R1
SYMATTR Value 100
SYMBOL res -1328 -1152 R90
WINDOW 0 0 56 VBottom 2
WINDOW 3 32 56 VTop 2
SYMATTR InstName R2
SYMATTR Value 5
SYMBOL res -1248 -1008 R180
WINDOW 0 36 76 Left 2
WINDOW 3 36 40 Left 2
SYMATTR InstName R3
SYMATTR Value 5
SYMBOL AutoGenerated\\LM2595_ADJ_TRANS -2112 -128 R0
SYMATTR InstName U1
SYMBOL cap -2272 -96 R180
WINDOW 0 24 56 Left 2
WINDOW 3 24 8 Left 2
SYMATTR InstName C2
SYMATTR Value 220µ
SYMBOL ind -1760 -144 R90
WINDOW 0 5 56 VBottom 2
WINDOW 3 32 56 VTop 2
SYMATTR InstName L1
SYMATTR Value 100µ
SYMBOL cap -1744 -128 R0
SYMATTR InstName C1
SYMATTR Value 120µ
SYMBOL schottky -1872 -32 R180
WINDOW 0 24 64 Left 2
WINDOW 3 -81 5 Left 2
SYMATTR InstName D1
SYMATTR Value DN5822
SYMATTR Description Diode
SYMATTR Type diode
SYMBOL res -2160 -336 R90
WINDOW 0 0 56 VBottom 2
WINDOW 3 32 56 VTop 2
SYMATTR InstName R4
SYMATTR Value 1k
SYMBOL res -1936 -336 R90
WINDOW 0 0 56 VBottom 2
WINDOW 3 32 56 VTop 2
SYMATTR InstName R5
SYMATTR Value 3065
SYMBOL cap -2064 -400 R90
WINDOW 0 0 32 VBottom 2
WINDOW 3 32 32 VTop 2
SYMATTR InstName C3
SYMATTR Value 3.3n
SYMBOL res -1616 -112 R0
SYMATTR InstName Rcurrentout
SYMATTR Value 50
SYMBOL res -2320 -176 R90
WINDOW 0 0 56 VBottom 2
WINDOW 3 32 56 VTop 2
SYMATTR InstName Rcurrentin
SYMATTR Value 1
SYMBOL AutoGenerated\\LM7805 -464 -1184 R0
SYMATTR InstName U2
SYMBOL cap -704 -1168 R0
WINDOW 3 19 58 Left 2
SYMATTR Value 0.33µ
SYMATTR InstName C4
SYMBOL cap -400 -1152 R0
SYMATTR InstName C5
SYMATTR Value 0.1µ
SYMBOL res -528 -1200 R90
WINDOW 0 0 56 VBottom 2
WINDOW 3 32 56 VTop 2
SYMATTR InstName Rcurrentin1
SYMATTR Value 1
SYMBOL Opamps\\opamp2 -672 -720 R0
SYMATTR InstName U3
SYMATTR Value TLC2272
SYMBOL res -816 -704 R90
WINDOW 0 0 56 VBottom 2
WINDOW 3 32 56 VTop 2
SYMATTR InstName R6
SYMATTR Value 10k
SYMBOL res -816 -608 R90
WINDOW 0 0 56 VBottom 2
WINDOW 3 32 56 VTop 2
SYMATTR InstName R7
SYMATTR Value 10k
SYMBOL res -640 -816 R90
WINDOW 0 0 56 VBottom 2
WINDOW 3 32 56 VTop 2
SYMATTR InstName R8
SYMATTR Value 416k
SYMBOL res -784 -592 R0
SYMATTR InstName R9
SYMATTR Value 416k
SYMBOL res -912 -1152 R0
SYMATTR InstName Rcurrentout1
SYMATTR Value 50
SYMBOL res -1088 -544 R90
WINDOW 0 0 56 VBottom 2
WINDOW 3 32 56 VTop 2
SYMATTR InstName R10
SYMATTR Value 237.8641k
SYMBOL res -1072 -368 R180
WINDOW 0 36 76 Left 2
WINDOW 3 36 40 Left 2
SYMATTR InstName R12
SYMATTR Value 100k
SYMBOL voltage -1104 -704 R0
WINDOW 0 24 96 Left 2
WINDOW 3 -107 -12 Left 2
WINDOW 123 0 0 Left 0
WINDOW 39 0 0 Left 0
SYMATTR InstName V5
SYMATTR Value SINE(1.21 60m 200)
SYMBOL cap -1008 -464 R0
SYMATTR InstName C6
SYMATTR Value 100n
SYMBOL cap -832 -464 R0
SYMATTR InstName C7
SYMATTR Value 100n
TEXT -2080 -1120 Left 2 !.tran 0 10m 0 {timestep}
TEXT -1952 -1168 Left 2 !.include E344cfg.txt
TEXT -2288 -1384 Left 2 ;Don't change these -- used for auto-assessments.\nYou may modify input files while developing.\nFor submission: \n  * Use only 9V supply \n  * Connect "Stimulus" to your input\n  * Connect "Vout" to your output.\n  * Only one label name per net.
TEXT -2280 -1168 Left 2 ;Config file:
TEXT -2280 -1120 Left 2 ;Analysis setup:
TEXT -2272 -744 Left 2 ;Battery
TEXT -2280 -1032 Left 2 ;Sensor-\nemulating \nstimulus
TEXT -2272 -608 Left 2 ;Assessed nets:\nConnect to your outputs
TEXT -1552 -1400 Left 2 ;AJ van Wijk  21786275\nV(0degV) =  640mV\ndeltaV/degV = 15 mV
TEXT -2280 -1432 Left 2 !.incl LM2595_ADJ_TRANS.LIB
TEXT -2272 -1464 Left 2 !.incl LM7805.lib
TEXT -2264 -1496 Left 2 !.incl TLC2272.lib
TEXT -2248 -1520 Left 2 !.incl TL081.lib
TEXT -2232 -1584 Left 2 !.incl 1N5822.lib
TEXT -2304 -536 Left 2 !;tran 0 {transtop} 0 {timestep}
TEXT -1208 -832 Left 2 ;MAX is 1.27V\nVariation is 60mV
LINE Normal -1792 -1008 -1856 -1008 2
LINE Normal -1792 -864 -1792 -1008 2
LINE Normal -1808 -880 -1792 -864 2
LINE Normal -1792 -864 -1808 -880 2
LINE Normal -1776 -880 -1792 -864 2
LINE Normal -2128 -1008 -2112 -1008 2
LINE Normal -2128 -928 -2128 -1008 2
LINE Normal -2128 -912 -2128 -928 2
LINE Normal -2096 -912 -2128 -912 2
LINE Normal -2112 -928 -2096 -912 2
LINE Normal -2096 -912 -2112 -928 2
LINE Normal -2112 -896 -2096 -912 2
LINE Normal -1968 -944 -1968 -992 2
LINE Normal -1856 -944 -1968 -944 2
LINE Normal -1856 -896 -1856 -944 2
LINE Normal -1872 -912 -1856 -896 2
LINE Normal -1856 -896 -1872 -912 2
LINE Normal -1840 -912 -1856 -896 2
LINE Normal -2304 -544 -2304 -1408 1
LINE Normal -1680 -1408 -1680 -544 1
LINE Normal -1680 -544 -2304 -544 1
LINE Normal -1680 -1408 -2304 -1408 1
