Version 4
SHEET 1 1824 680
WIRE -96 -1376 -432 -1376
WIRE -624 -1312 -656 -1312
WIRE -496 -1312 -496 -1376
WIRE -496 -1312 -544 -1312
WIRE -400 -1312 -496 -1312
WIRE -96 -1312 -96 -1376
WIRE -96 -1312 -320 -1312
WIRE -656 -1280 -656 -1312
WIRE -496 -1232 -496 -1312
WIRE -336 -1232 -496 -1232
WIRE -1024 -1200 -1120 -1200
WIRE -976 -1200 -1024 -1200
WIRE -656 -1152 -720 -1152
WIRE -576 -1152 -656 -1152
WIRE -336 -1152 -336 -1232
WIRE -336 -1152 -368 -1152
WIRE -576 -1120 -624 -1120
WIRE -256 -1120 -368 -1120
WIRE -224 -1120 -256 -1120
WIRE -96 -1120 -96 -1312
WIRE -96 -1120 -144 -1120
WIRE 16 -1120 -96 -1120
WIRE 64 -1120 16 -1120
WIRE -624 -1088 -624 -1120
WIRE -624 -1088 -656 -1088
WIRE -576 -1088 -624 -1088
WIRE -336 -1088 -368 -1088
WIRE -256 -1088 -256 -1120
WIRE -1840 -1072 -1888 -1072
WIRE -1184 -1072 -1216 -1072
WIRE -1024 -1072 -1024 -1200
WIRE -1024 -1072 -1104 -1072
WIRE -656 -1072 -656 -1088
WIRE -336 -1072 -336 -1088
WIRE -2032 -1056 -2080 -1056
WIRE -1936 -1056 -1984 -1056
WIRE -1888 -1056 -1888 -1072
WIRE -1024 -1040 -1024 -1072
WIRE -256 -1008 -256 -1024
WIRE -2032 -976 -2032 -1056
WIRE -1984 -976 -2032 -976
WIRE -1936 -976 -1936 -1056
WIRE -1888 -976 -1936 -976
WIRE -2080 -960 -2080 -976
WIRE -1024 -944 -1024 -960
WIRE -2032 -768 -2096 -768
WIRE -512 -768 -560 -768
WIRE -448 -768 -512 -768
WIRE -272 -736 -336 -736
WIRE -176 -736 -272 -736
WIRE -16 -736 -96 -736
WIRE -2032 -720 -2032 -768
WIRE -1920 -720 -1952 -720
WIRE -512 -688 -512 -704
WIRE -448 -688 -512 -688
WIRE -16 -672 -16 -736
WIRE 0 -672 -16 -672
WIRE -512 -656 -512 -688
WIRE -272 -656 -272 -672
WIRE -1888 -608 -1936 -608
FLAG -2080 -960 0
FLAG -1840 -1072 Stimulus
FLAG -1920 -720 9V
IOPIN -1920 -720 Out
FLAG -2096 -688 0
FLAG -1360 -1200 9V
IOPIN -1360 -1200 In
FLAG -1888 -608 Vout
IOPIN -1888 -608 Out
FLAG -1216 -1072 Stimulus
FLAG -1024 -944 0
FLAG -656 -1072 0
FLAG -256 -1008 0
FLAG -336 -1072 0
FLAG -96 -1056 0
FLAG -656 -1280 0
FLAG -720 -1152 9V
IOPIN -720 -1152 In
FLAG -512 -656 0
FLAG -272 -656 0
FLAG 0 -672 0
FLAG 64 -1120 Vout
IOPIN 64 -1120 Out
FLAG 16 -1040 0
SYMBOL voltage -1984 -1072 R0
WINDOW 123 0 0 Left 0
WINDOW 39 0 0 Left 0
WINDOW 3 -89 197 Left 2
WINDOW 0 -13 54 Left 2
SYMATTR Value PWL file=PWLinput.csv
SYMATTR InstName V2
SYMBOL voltage -1888 -1072 R0
WINDOW 123 24 44 Left 2
WINDOW 39 0 0 Left 0
WINDOW 3 -386 233 Left 2
WINDOW 0 -11 56 Left 2
SYMATTR Value SINE({sineOffset} {sineAmplitude} {sineFreq})
SYMATTR InstName V3
SYMBOL voltage -2080 -1072 R0
WINDOW 123 0 0 Left 0
WINDOW 39 0 0 Left 0
WINDOW 3 3 160 Left 2
WINDOW 0 -13 55 Left 2
SYMATTR Value {dcAmplitude}
SYMATTR InstName V1
SYMBOL voltage -2096 -784 R0
WINDOW 123 24 44 Left 2
WINDOW 39 0 0 Left 0
WINDOW 3 -46 76 Left 2
WINDOW 0 -13 57 Left 2
SYMATTR Value 9
SYMATTR InstName V4
SYMBOL res -1936 -736 R90
WINDOW 0 -9 30 VBottom 2
WINDOW 3 34 56 VTop 2
SYMATTR InstName R_Sense
SYMATTR Value 0.010
SYMBOL res -1216 -1184 R270
WINDOW 0 32 56 VTop 2
WINDOW 3 0 56 VBottom 2
SYMATTR InstName R1
SYMATTR Value 100
SYMBOL res -1088 -1088 R90
WINDOW 0 0 56 VBottom 2
WINDOW 3 32 56 VTop 2
SYMATTR InstName R2
SYMATTR Value 5
SYMBOL res -1008 -944 R180
WINDOW 0 36 76 Left 2
WINDOW 3 36 40 Left 2
SYMATTR InstName R3
SYMATTR Value 5
SYMBOL AutoGenerated\\LM2595_ADJ_TRANS -480 -1120 R0
SYMATTR InstName U1
SYMBOL cap -640 -1088 R180
WINDOW 0 24 56 Left 2
WINDOW 3 24 8 Left 2
SYMATTR InstName C2
SYMATTR Value 220µ
SYMBOL ind -128 -1136 R90
WINDOW 0 5 56 VBottom 2
WINDOW 3 32 56 VTop 2
SYMATTR InstName L1
SYMATTR Value 100µ
SYMBOL cap -112 -1120 R0
SYMATTR InstName C1
SYMATTR Value 120µ
SYMBOL schottky -240 -1024 R180
WINDOW 0 24 64 Left 2
WINDOW 3 24 0 Left 2
SYMATTR InstName D1
SYMATTR Value DN5822
SYMATTR Description Diode
SYMATTR Type diode
SYMBOL res -528 -1328 R90
WINDOW 0 0 56 VBottom 2
WINDOW 3 32 56 VTop 2
SYMATTR InstName R4
SYMATTR Value 1k
SYMBOL res -304 -1328 R90
WINDOW 0 0 56 VBottom 2
WINDOW 3 32 56 VTop 2
SYMATTR InstName R5
SYMATTR Value 3065
SYMBOL cap -432 -1392 R90
WINDOW 0 0 32 VBottom 2
WINDOW 3 32 32 VTop 2
SYMATTR InstName C3
SYMATTR Value 3.3n
SYMBOL cap -528 -768 R0
WINDOW 3 -42 51 Left 2
SYMATTR Value 0.33µ
SYMATTR InstName C4
SYMBOL cap -288 -736 R0
SYMATTR InstName C5
SYMATTR Value 0.1µ
SYMBOL AutoGenerated\\LM7805 -416 -752 R0
SYMATTR InstName U2
SYMBOL res -192 -720 R270
WINDOW 0 32 56 VTop 2
WINDOW 3 0 56 VBottom 2
SYMATTR InstName R6
SYMATTR Value 785
SYMBOL res 0 -1136 R0
SYMATTR InstName R7
SYMATTR Value 100
TEXT -2080 -1120 Left 2 !.tran 0 {transtop} 0 {timestep}
TEXT -1952 -1168 Left 2 !.include E344cfg.txt
TEXT -2288 -1384 Left 2 ;Don't change these -- used for auto-assessments.\nYou may modify input files while developing.\nFor submission: \n  * Use only 9V supply \n  * Connect "Stimulus" to your input\n  * Connect "Vout" to your output.\n  * Only one label name per net.
TEXT -2280 -1168 Left 2 ;Config file:
TEXT -2280 -1120 Left 2 ;Analysis setup:
TEXT -2272 -744 Left 2 ;Battery
TEXT -2280 -1032 Left 2 ;Sensor-\nemulating \nstimulus
TEXT -2272 -608 Left 2 ;Assessed nets:\nConnect to your outputs
TEXT -1552 -1400 Left 2 ;E. Stewdent.,  00024601\nV(0degV) = 500 mV\ndeltaV/degV = 10 mV
TEXT -2280 -1432 Left 2 !.incl LM2595_ADJ_TRANS.LIB
TEXT -2272 -1464 Left 2 !.incl LM7805.lib
TEXT -2264 -1496 Left 2 !.incl TLC2272.lib
TEXT -2248 -1520 Left 2 !.incl TL081.lib
TEXT -2232 -1584 Left 2 !.incl 1N5822.lib
LINE Normal -1792 -1008 -1856 -1008 2
LINE Normal -1792 -864 -1792 -1008 2
LINE Normal -1808 -880 -1792 -864 2
LINE Normal -1792 -864 -1808 -880 2
LINE Normal -1776 -880 -1792 -864 2
LINE Normal -2128 -1008 -2112 -1008 2
LINE Normal -2128 -928 -2128 -1008 2
LINE Normal -2128 -912 -2128 -928 2
LINE Normal -2096 -912 -2128 -912 2
LINE Normal -2112 -928 -2096 -912 2
LINE Normal -2096 -912 -2112 -928 2
LINE Normal -2112 -896 -2096 -912 2
LINE Normal -1968 -944 -1968 -992 2
LINE Normal -1856 -944 -1968 -944 2
LINE Normal -1856 -896 -1856 -944 2
LINE Normal -1872 -912 -1856 -896 2
LINE Normal -1856 -896 -1872 -912 2
LINE Normal -1840 -912 -1856 -896 2
LINE Normal -2304 -544 -2304 -1408 1
LINE Normal -1680 -1408 -1680 -544 1
LINE Normal -1680 -544 -2304 -544 1
LINE Normal -1680 -1408 -2304 -1408 1
