Version 4
SHEET 1 1824 680
WIRE -1264 -1264 -1360 -1264
WIRE -1216 -1264 -1264 -1264
WIRE -1424 -1136 -1456 -1136
WIRE -1264 -1136 -1264 -1264
WIRE -1264 -1136 -1344 -1136
WIRE -1264 -1104 -1264 -1136
WIRE -1840 -1072 -1888 -1072
WIRE -2032 -1056 -2080 -1056
WIRE -1936 -1056 -1984 -1056
WIRE -1888 -1056 -1888 -1072
WIRE -2032 -976 -2032 -1056
WIRE -1984 -976 -2032 -976
WIRE -1936 -976 -1936 -1056
WIRE -1888 -976 -1936 -976
WIRE -2080 -960 -2080 -976
WIRE -432 -928 -480 -928
WIRE -208 -928 -352 -928
WIRE -2032 -768 -2096 -768
WIRE -608 -752 -800 -752
WIRE -480 -752 -480 -928
WIRE -480 -752 -528 -752
WIRE -368 -752 -368 -832
WIRE -480 -736 -480 -752
WIRE -400 -736 -480 -736
WIRE -2032 -720 -2032 -768
WIRE -1920 -720 -1952 -720
WIRE -208 -720 -208 -928
WIRE -208 -720 -336 -720
WIRE -160 -720 -208 -720
WIRE 112 -720 96 -720
WIRE 208 -720 192 -720
WIRE 288 -720 208 -720
WIRE -400 -704 -464 -704
WIRE 208 -704 208 -720
WIRE -608 -656 -656 -656
WIRE -464 -656 -464 -704
WIRE -464 -656 -528 -656
WIRE -464 -640 -464 -656
WIRE 208 -624 208 -640
WIRE -1888 -608 -1936 -608
WIRE -880 -592 -912 -592
WIRE -784 -592 -800 -592
WIRE -656 -592 -656 -656
WIRE -656 -592 -784 -592
WIRE -784 -528 -784 -592
WIRE -464 -528 -464 -560
WIRE -416 -528 -464 -528
WIRE -368 -528 -368 -688
WIRE -368 -528 -416 -528
WIRE -416 -512 -416 -528
WIRE -784 -432 -784 -448
WIRE -1728 -384 -2064 -384
WIRE -2256 -320 -2288 -320
WIRE -2128 -320 -2128 -384
WIRE -2128 -320 -2176 -320
WIRE -2032 -320 -2128 -320
WIRE -1728 -320 -1728 -384
WIRE -1728 -320 -1952 -320
WIRE -560 -304 -624 -304
WIRE -448 -304 -480 -304
WIRE -2288 -288 -2288 -320
WIRE -2128 -240 -2128 -320
WIRE -1968 -240 -2128 -240
WIRE -544 -192 -544 -208
WIRE -736 -176 -752 -176
WIRE -624 -176 -624 -304
WIRE -624 -176 -656 -176
WIRE -576 -176 -624 -176
WIRE -2288 -160 -2336 -160
WIRE -2208 -160 -2288 -160
WIRE -1968 -160 -1968 -240
WIRE -1968 -160 -2000 -160
WIRE -448 -160 -448 -304
WIRE -448 -160 -512 -160
WIRE -416 -160 -448 -160
WIRE -576 -144 -624 -144
WIRE -2208 -128 -2256 -128
WIRE -1888 -128 -2000 -128
WIRE -1856 -128 -1888 -128
WIRE -1728 -128 -1728 -320
WIRE -1728 -128 -1776 -128
WIRE -1600 -128 -1728 -128
WIRE 336 -112 336 -128
WIRE 336 -112 304 -112
WIRE -2256 -96 -2256 -128
WIRE -2256 -96 -2288 -96
WIRE -2208 -96 -2256 -96
WIRE -1968 -96 -2000 -96
WIRE -1888 -96 -1888 -128
WIRE -1600 -96 -1600 -128
WIRE -544 -96 -544 -128
WIRE 48 -96 0 -96
WIRE 112 -96 48 -96
WIRE 240 -96 192 -96
WIRE -1968 -80 -1968 -96
WIRE -880 -80 -912 -80
WIRE -784 -80 -800 -80
WIRE -736 -80 -784 -80
WIRE -624 -80 -624 -144
WIRE -624 -80 -656 -80
WIRE 48 -80 48 -96
WIRE 352 -80 304 -80
WIRE 416 -80 352 -80
WIRE 352 -64 352 -80
WIRE -2288 -16 -2288 -96
WIRE -1888 -16 -1888 -32
WIRE -1728 -16 -1728 -64
WIRE -784 -16 -784 -80
WIRE 48 16 48 -16
WIRE 352 16 352 0
WIRE -784 96 -784 64
WIRE -2000 208 -2048 208
WIRE -1888 208 -1920 208
WIRE -2048 272 -2048 208
WIRE -1984 352 -1984 320
WIRE -1936 352 -1984 352
WIRE -1888 352 -1888 208
WIRE -1824 352 -1888 352
WIRE -1936 384 -1936 352
WIRE -2048 400 -2048 272
WIRE -1968 400 -2048 400
WIRE -1824 416 -1824 352
WIRE -1824 416 -1904 416
WIRE -1968 432 -2000 432
WIRE -2224 464 -2224 416
WIRE -2224 464 -2256 464
WIRE -2176 464 -2224 464
WIRE -2064 464 -2096 464
WIRE -2000 464 -2000 432
WIRE -2000 464 -2064 464
WIRE -2064 480 -2064 464
FLAG -2080 -960 0
FLAG -1840 -1072 Stimulus
FLAG -1920 -720 9V
IOPIN -1920 -720 Out
FLAG -2096 -688 0
FLAG -1600 -1264 9V
IOPIN -1600 -1264 In
FLAG -1888 -608 Vout
IOPIN -1888 -608 Out
FLAG -2288 -16 0
FLAG -1888 -16 0
FLAG -1968 -80 0
FLAG -1728 -16 0
FLAG -2288 -288 0
FLAG -1600 -16 0
FLAG 336 -128 0
FLAG 48 16 0
FLAG 352 16 0
FLAG -1584 -1136 Stimulus
FLAG -416 -512 0
FLAG 0 -96 9V
IOPIN 0 -96 In
FLAG 416 -80 5V
IOPIN 416 -80 In
FLAG -784 -432 0
FLAG -544 -208 5V
IOPIN -544 -208 Out
FLAG -912 -592 5V
IOPIN -912 -592 Out
FLAG -2064 544 0
FLAG -1936 448 0
FLAG -1984 320 5V
IOPIN -1984 320 Out
FLAG -368 -832 5V
IOPIN -368 -832 Out
FLAG -2224 528 0
FLAG -2128 272 0
FLAG -752 -176 Stimulus
FLAG -784 96 0
FLAG -912 -80 5V
IOPIN -912 -80 Out
FLAG -544 -96 0
FLAG -800 -752 PreAmp
IOPIN -800 -752 Out
FLAG -416 -160 PreAmp
IOPIN -416 -160 In
FLAG -160 -720 LPF
IOPIN -160 -720 In
FLAG 96 -720 LPF
IOPIN 96 -720 Out
FLAG 288 -720 Vout
IOPIN 288 -720 Out
FLAG 208 -624 0
SYMBOL voltage -1984 -1072 R0
WINDOW 123 0 0 Left 0
WINDOW 39 0 0 Left 0
WINDOW 3 -89 197 Left 2
WINDOW 0 -13 54 Left 2
SYMATTR Value PWL file=PWLinput.csv
SYMATTR InstName V2
SYMBOL voltage -1888 -1072 R0
WINDOW 123 24 44 Left 2
WINDOW 39 0 0 Left 0
WINDOW 3 -386 233 Left 2
WINDOW 0 -11 56 Left 2
SYMATTR Value SINE({sineOffset} {sineAmplitude} {sineFreq})
SYMATTR InstName V3
SYMBOL voltage -2080 -1072 R0
WINDOW 123 0 0 Left 0
WINDOW 39 0 0 Left 0
WINDOW 3 3 160 Left 2
WINDOW 0 -13 55 Left 2
SYMATTR Value {dcAmplitude}
SYMATTR InstName V1
SYMBOL voltage -2096 -784 R0
WINDOW 123 24 44 Left 2
WINDOW 39 0 0 Left 0
WINDOW 3 -46 76 Left 2
WINDOW 0 -13 57 Left 2
SYMATTR Value 9
SYMATTR InstName V4
SYMBOL res -1936 -736 R90
WINDOW 0 -9 30 VBottom 2
WINDOW 3 34 56 VTop 2
SYMATTR InstName R_Sense
SYMATTR Value 0.010
SYMBOL res -1456 -1248 R270
WINDOW 0 32 56 VTop 2
WINDOW 3 0 56 VBottom 2
SYMATTR InstName R1
SYMATTR Value 100
SYMBOL res -1328 -1152 R90
WINDOW 0 0 56 VBottom 2
WINDOW 3 32 56 VTop 2
SYMATTR InstName R2
SYMATTR Value 5
SYMBOL res -1248 -1008 R180
WINDOW 0 36 76 Left 2
WINDOW 3 36 40 Left 2
SYMATTR InstName R3
SYMATTR Value 5
SYMBOL AutoGenerated\\LM2595_ADJ_TRANS -2112 -128 R0
SYMATTR InstName U1
SYMBOL cap -2272 -96 R180
WINDOW 0 24 56 Left 2
WINDOW 3 24 8 Left 2
SYMATTR InstName C2
SYMATTR Value 220µ
SYMBOL ind -1760 -144 R90
WINDOW 0 5 56 VBottom 2
WINDOW 3 32 56 VTop 2
SYMATTR InstName L1
SYMATTR Value 100µ
SYMBOL cap -1744 -128 R0
SYMATTR InstName C1
SYMATTR Value 120µ
SYMBOL schottky -1872 -32 R180
WINDOW 0 24 64 Left 2
WINDOW 3 -81 5 Left 2
SYMATTR InstName D1
SYMATTR Value DN5822
SYMATTR Description Diode
SYMATTR Type diode
SYMBOL res -2160 -336 R90
WINDOW 0 0 56 VBottom 2
WINDOW 3 32 56 VTop 2
SYMATTR InstName R4
SYMATTR Value 1k
SYMBOL res -1936 -336 R90
WINDOW 0 0 56 VBottom 2
WINDOW 3 32 56 VTop 2
SYMATTR InstName R5
SYMATTR Value 3065
SYMBOL cap -2064 -400 R90
WINDOW 0 0 32 VBottom 2
WINDOW 3 32 32 VTop 2
SYMATTR InstName C3
SYMATTR Value 3.3n
SYMBOL res -1616 -112 R0
SYMATTR InstName Rcurrentout
SYMATTR Value 50
SYMBOL res -2320 -176 R90
WINDOW 0 0 56 VBottom 2
WINDOW 3 32 56 VTop 2
SYMATTR InstName Rcurrentin
SYMATTR Value 1
SYMBOL AutoGenerated\\LM7805 272 -96 R0
SYMATTR InstName U2
SYMBOL cap 32 -80 R0
WINDOW 3 19 58 Left 2
SYMATTR Value 0.33µ
SYMATTR InstName C4
SYMBOL cap 336 -64 R0
SYMATTR InstName C5
SYMATTR Value 0.1µ
SYMBOL res 208 -112 R90
WINDOW 0 0 56 VBottom 2
WINDOW 3 32 56 VTop 2
SYMATTR InstName Rcurrentin1
SYMATTR Value 1
SYMBOL Opamps\\opamp2 -368 -784 R0
SYMATTR InstName U3
SYMATTR Value TLC2272
SYMBOL res -512 -768 R90
WINDOW 0 0 56 VBottom 2
WINDOW 3 32 56 VTop 2
SYMATTR InstName R6
SYMATTR Value 13k
SYMBOL res -512 -672 R90
WINDOW 0 0 56 VBottom 2
WINDOW 3 32 56 VTop 2
SYMATTR InstName R7
SYMATTR Value 10k
SYMBOL res -336 -944 R90
WINDOW 0 0 56 VBottom 2
WINDOW 3 32 56 VTop 2
SYMATTR InstName R8
SYMATTR Value 416k
SYMBOL res -480 -656 R0
SYMATTR InstName R9
SYMATTR Value 416k
SYMBOL res -784 -608 R90
WINDOW 0 0 56 VBottom 2
WINDOW 3 32 56 VTop 2
SYMATTR InstName R10
SYMATTR Value 236.0641k
SYMBOL res -768 -432 R180
WINDOW 0 36 76 Left 2
WINDOW 3 36 40 Left 2
SYMATTR InstName R12
SYMATTR Value 100k
SYMBOL Opamps\\opamp2 -1936 352 R0
SYMATTR InstName U6
SYMATTR Value TL081
SYMBOL cap -2080 480 R0
SYMATTR InstName C7
SYMATTR Value 318n
SYMBOL res -2080 448 R90
WINDOW 0 0 56 VBottom 2
WINDOW 3 32 56 VTop 2
SYMATTR InstName R11
SYMATTR Value 100k
SYMBOL res -2240 448 R90
WINDOW 0 0 56 VBottom 2
WINDOW 3 32 56 VTop 2
SYMATTR InstName R13
SYMATTR Value 100k
SYMBOL res -1904 192 R90
WINDOW 0 0 56 VBottom 2
WINDOW 3 32 56 VTop 2
SYMATTR InstName R16
SYMATTR Value 10k
SYMBOL cap -2240 464 R0
SYMATTR InstName C6
SYMATTR Value 318n
SYMBOL res -2032 256 R90
WINDOW 0 0 56 VBottom 2
WINDOW 3 32 56 VTop 2
SYMATTR InstName R17
SYMATTR Value 10k
SYMBOL res 208 -736 R90
WINDOW 0 0 56 VBottom 2
WINDOW 3 32 56 VTop 2
SYMATTR InstName R18
SYMATTR Value 100k
SYMBOL res -640 -192 R90
WINDOW 0 0 56 VBottom 2
WINDOW 3 32 56 VTop 2
SYMATTR InstName R14
SYMATTR Value 100k
SYMBOL res -464 -320 R90
WINDOW 0 0 56 VBottom 2
WINDOW 3 32 56 VTop 2
SYMATTR InstName R15
SYMATTR Value 100k
SYMBOL res -784 -96 R90
WINDOW 0 0 56 VBottom 2
WINDOW 3 32 56 VTop 2
SYMATTR InstName R21
SYMATTR Value 313k
SYMBOL res -768 80 R180
WINDOW 0 36 76 Left 2
WINDOW 3 36 40 Left 2
SYMATTR InstName R22
SYMATTR Value 100k
SYMBOL Opamps\\opamp2 -544 -224 R0
SYMATTR InstName U4
SYMATTR Value TLC2272
SYMBOL res -640 -96 R90
WINDOW 0 0 56 VBottom 2
WINDOW 3 32 56 VTop 2
SYMATTR InstName R19
SYMATTR Value 10k
SYMBOL cap 192 -704 R0
SYMATTR InstName C9
SYMATTR Value 50µ
TEXT -2080 -1120 Left 2 !.tran 0 {transtop} 0 {timestep}
TEXT -1952 -1168 Left 2 !.include E344cfg.txt
TEXT -2288 -1384 Left 2 ;Don't change these -- used for auto-assessments.\nYou may modify input files while developing.\nFor submission: \n  * Use only 9V supply \n  * Connect "Stimulus" to your input\n  * Connect "Vout" to your output.\n  * Only one label name per net.
TEXT -2280 -1168 Left 2 ;Config file:
TEXT -2280 -1120 Left 2 ;Analysis setup:
TEXT -2272 -744 Left 2 ;Battery
TEXT -2280 -1032 Left 2 ;Sensor-\nemulating \nstimulus
TEXT -2272 -608 Left 2 ;Assessed nets:\nConnect to your outputs
TEXT -1552 -1400 Left 2 ;AJ van Wijk  21786275\nV(0degV) =  640mV\ndeltaV/degV = 15 mV
TEXT -2280 -1432 Left 2 !.incl LM2595_ADJ_TRANS.LIB
TEXT -2272 -1464 Left 2 !.incl LM7805.lib
TEXT -2264 -1496 Left 2 !.incl TLC2272.lib
TEXT -2248 -1520 Left 2 !.incl TL081.lib
TEXT -2232 -1584 Left 2 !.incl 1N5822.lib
TEXT -2288 -512 Left 2 !;tran 0 {transtop} 0 {timestep}
TEXT -1112 -960 Left 2 ;MAX is 1.27V\nVariation is 60mV
TEXT 88 -888 Left 2 ;LPF with fc = 3.1Hz
TEXT -2320 288 Left 2 ;Useless Filter
TEXT -1080 -312 Left 2 ;PreAmplifier
TEXT 80 -264 Left 2 ;9V to 5V Power supply
TEXT -904 -856 Left 2 ;Amplifier with virtual GND
LINE Normal -1792 -1008 -1856 -1008 2
LINE Normal -1792 -864 -1792 -1008 2
LINE Normal -1808 -880 -1792 -864 2
LINE Normal -1792 -864 -1808 -880 2
LINE Normal -1776 -880 -1792 -864 2
LINE Normal -2128 -1008 -2112 -1008 2
LINE Normal -2128 -928 -2128 -1008 2
LINE Normal -2128 -912 -2128 -928 2
LINE Normal -2096 -912 -2128 -912 2
LINE Normal -2112 -928 -2096 -912 2
LINE Normal -2096 -912 -2112 -928 2
LINE Normal -2112 -896 -2096 -912 2
LINE Normal -1968 -944 -1968 -992 2
LINE Normal -1856 -944 -1968 -944 2
LINE Normal -1856 -896 -1856 -944 2
LINE Normal -1872 -912 -1856 -896 2
LINE Normal -1856 -896 -1872 -912 2
LINE Normal -1840 -912 -1856 -896 2
LINE Normal -2304 -544 -2304 -1408 1
LINE Normal -1680 -1408 -1680 -544 1
LINE Normal -1680 -544 -2304 -544 1
LINE Normal -1680 -1408 -2304 -1408 1
LINE Normal -64 -992 -64 160 1
LINE Normal -1136 -992 -1152 176 1
LINE Normal 496 -992 -1136 -992 1
LINE Normal 496 -384 -1136 -384 1
LINE Normal 496 176 -1152 176 1
LINE Normal 496 -992 496 176 1
