Version 4
SHEET 1 1824 680
WIRE -1088 -1440 -1152 -1440
WIRE -912 -1440 -1008 -1440
WIRE -864 -1440 -912 -1440
WIRE -1072 -1312 -1104 -1312
WIRE -912 -1312 -912 -1440
WIRE -912 -1312 -992 -1312
WIRE -912 -1280 -912 -1312
WIRE -1216 -1232 -1216 -1312
WIRE -1136 -1232 -1136 -1248
WIRE -1072 -1232 -1136 -1232
WIRE -1072 -1216 -1072 -1232
WIRE -992 -1216 -1072 -1216
WIRE -1072 -1200 -1072 -1216
WIRE -992 -1200 -992 -1216
WIRE -912 -1200 -992 -1200
WIRE -896 -1200 -912 -1200
WIRE -912 -1184 -912 -1200
WIRE -16 -1120 -64 -1120
WIRE -1840 -1072 -1888 -1072
WIRE 192 -1072 192 -1120
WIRE -2032 -1056 -2080 -1056
WIRE -1936 -1056 -1984 -1056
WIRE -1888 -1056 -1888 -1072
WIRE -1504 -1040 -1536 -1040
WIRE -1456 -1040 -1504 -1040
WIRE -1328 -1040 -1392 -1040
WIRE -1248 -1040 -1328 -1040
WIRE -496 -1040 -544 -1040
WIRE -272 -1040 -416 -1040
WIRE -1504 -1024 -1504 -1040
WIRE -1328 -1024 -1328 -1040
WIRE 64 -1024 64 -1120
WIRE 112 -1024 64 -1024
WIRE 352 -1024 272 -1024
WIRE -2032 -976 -2032 -1056
WIRE -1984 -976 -2032 -976
WIRE -1936 -976 -1936 -1056
WIRE -1888 -976 -1936 -976
WIRE 64 -976 64 -1024
WIRE 64 -976 48 -976
WIRE 112 -976 64 -976
WIRE 368 -976 288 -976
WIRE -2080 -960 -2080 -976
WIRE -1504 -944 -1504 -960
WIRE -1424 -944 -1424 -976
WIRE -1424 -944 -1504 -944
WIRE -1328 -944 -1328 -960
WIRE -1328 -944 -1424 -944
WIRE -1424 -928 -1424 -944
WIRE 192 -880 192 -928
WIRE -672 -864 -864 -864
WIRE -544 -864 -544 -1040
WIRE -544 -864 -592 -864
WIRE -432 -864 -432 -944
WIRE -544 -848 -544 -864
WIRE -464 -848 -544 -848
WIRE -272 -832 -272 -1040
WIRE -272 -832 -400 -832
WIRE -224 -832 -272 -832
WIRE -464 -816 -528 -816
WIRE -528 -784 -528 -816
WIRE -528 -784 -640 -784
WIRE -2032 -768 -2096 -768
WIRE -528 -752 -528 -784
WIRE -640 -736 -640 -784
WIRE -2032 -720 -2032 -768
WIRE -1920 -720 -1952 -720
WIRE -528 -640 -528 -672
WIRE -480 -640 -528 -640
WIRE -432 -640 -432 -800
WIRE -432 -640 -480 -640
WIRE -1920 -624 -1968 -624
WIRE -480 -624 -480 -640
WIRE -1920 -576 -1968 -576
FLAG -2080 -960 0
FLAG -1840 -1072 Stimulus
FLAG -1920 -720 9V
IOPIN -1920 -720 Out
FLAG -2096 -688 0
FLAG -1152 -1440 9V
IOPIN -1152 -1440 In
FLAG -1920 -624 VoutBeatPulses
IOPIN -1920 -624 Out
FLAG -1216 -1312 Stimulus
FLAG -912 -1184 0
FLAG -1920 -576 VoutRateAnalogue
IOPIN -1920 -576 Out
FLAG -864 -1440 VoutBeatPulses
IOPIN -864 -1440 Out
FLAG -1424 -928 0
FLAG -1536 -1040 9V
IOPIN -1536 -1040 In
FLAG -1248 -1040 5V
IOPIN -1248 -1040 In
FLAG -64 -1040 0
FLAG 192 -1120 0
FLAG 192 -880 0
FLAG 432 -1024 0
FLAG -480 -624 0
FLAG -432 -944 5V
IOPIN -432 -944 Out
FLAG -640 -656 0
FLAG -864 -864 Stimulus
SYMBOL voltage -1984 -1072 R0
WINDOW 123 0 0 Left 0
WINDOW 39 0 0 Left 0
WINDOW 3 -89 197 Left 2
WINDOW 0 -13 54 Left 2
SYMATTR Value PWL file=PWLinput.csv
SYMATTR InstName V2
SYMBOL voltage -1888 -1072 R0
WINDOW 123 24 44 Left 2
WINDOW 39 0 0 Left 0
WINDOW 3 -386 233 Left 2
WINDOW 0 -11 56 Left 2
SYMATTR Value SINE({sineOffset} {sineAmplitude} {sineFreq})
SYMATTR InstName V3
SYMBOL voltage -2080 -1072 R0
WINDOW 123 0 0 Left 0
WINDOW 39 0 0 Left 0
WINDOW 3 3 160 Left 2
WINDOW 0 -13 55 Left 2
SYMATTR Value {dcAmplitude}
SYMATTR InstName V1
SYMBOL voltage -2096 -784 R0
WINDOW 123 24 44 Left 2
WINDOW 39 0 0 Left 0
WINDOW 3 -46 76 Left 2
WINDOW 0 -13 57 Left 2
SYMATTR Value 9
SYMATTR InstName V4
SYMBOL res -1936 -736 R90
WINDOW 0 -9 30 VBottom 2
WINDOW 3 34 56 VTop 2
SYMATTR InstName R_Sense
SYMATTR Value 0.010
SYMBOL res -1104 -1424 R270
WINDOW 0 32 56 VTop 2
WINDOW 3 0 56 VBottom 2
SYMATTR InstName R1
SYMATTR Value 100
SYMBOL res -976 -1328 R90
WINDOW 0 0 56 VBottom 2
WINDOW 3 32 56 VTop 2
SYMATTR InstName R2
SYMATTR Value 5
SYMBOL res -896 -1184 R180
WINDOW 0 36 76 Left 2
WINDOW 3 36 40 Left 2
SYMATTR InstName R3
SYMATTR Value 5
SYMBOL res -1120 -1248 R90
WINDOW 0 0 56 VBottom 2
WINDOW 3 32 56 VTop 2
SYMATTR InstName R4
SYMATTR Value 500k
SYMBOL LM7805 -1424 -1024 R0
SYMATTR InstName U1
SYMBOL cap -1344 -1024 R0
SYMATTR InstName C2
SYMATTR Value 0.1µ
SYMBOL cap -1520 -1024 R0
WINDOW 3 -56 48 Left 2
SYMATTR InstName C1
SYMATTR Value 0.33µ
SYMBOL Digital\\dflop 192 -1072 R0
SYMATTR InstName A1
SYMBOL voltage -64 -1136 R0
WINDOW 123 0 0 Left 0
WINDOW 39 0 0 Left 0
SYMATTR InstName V5
SYMATTR Value SINE(0 1 0.8)
SYMBOL res 80 -1136 R90
WINDOW 0 0 56 VBottom 2
WINDOW 3 32 56 VTop 2
SYMATTR InstName R5
SYMATTR Value 10
SYMBOL res 448 -1040 R90
WINDOW 0 0 56 VBottom 2
WINDOW 3 32 56 VTop 2
SYMATTR InstName R6
SYMATTR Value 50
SYMBOL Opamps\\opamp2 -432 -896 R0
SYMATTR InstName U2
SYMATTR Value TLC2272
SYMBOL res -576 -880 R90
WINDOW 0 0 56 VBottom 2
WINDOW 3 32 56 VTop 2
SYMATTR InstName R7
SYMATTR Value 100k
SYMBOL res -400 -1056 R90
WINDOW 0 0 56 VBottom 2
WINDOW 3 32 56 VTop 2
SYMATTR InstName R9
SYMATTR Value 1333k
SYMBOL res -544 -768 R0
SYMATTR InstName R10
SYMATTR Value 1333k
SYMBOL voltage -640 -752 R0
WINDOW 123 0 0 Left 0
WINDOW 39 0 0 Left 0
SYMATTR InstName V6
SYMATTR Value 1
TEXT -2080 -1120 Left 2 !.tran 0 {transtop} 0 {timestep}
TEXT -1952 -1168 Left 2 !.include E344cfg.txt
TEXT -2288 -1384 Left 2 ;Don't change these -- used for auto-assessments.\nYou may modify input files while developing.\nFor submission: \n  * Use only 9V supply \n  * Connect "Stimulus" to your input\n  * Connect "VoutXXXX" to your output signals.\n  * Only one label name per net.
TEXT -2280 -1168 Left 2 ;Config file:
TEXT -2280 -1120 Left 2 ;Analysis setup:
TEXT -2272 -744 Left 2 ;Battery
TEXT -2280 -1032 Left 2 ;Sensor-\nemulating \nstimulus
TEXT -2272 -608 Left 2 ;Assessed nets:\nConnect to your outputs
TEXT -1552 -1400 Left 2 ;AJ van Wijk,  21786275\nDC = ??? mV\nHeart rate pk = ?? mV
TEXT -1008 -968 Left 2 ;DiffAmp with virtual GND
TEXT -1624 -848 Left 2 !.incl TLC2272.lib
LINE Normal -1792 -1008 -1856 -1008 2
LINE Normal -1792 -864 -1792 -1008 2
LINE Normal -1808 -880 -1792 -864 2
LINE Normal -1792 -864 -1808 -880 2
LINE Normal -1776 -880 -1792 -864 2
LINE Normal -2128 -1008 -2112 -1008 2
LINE Normal -2128 -928 -2128 -1008 2
LINE Normal -2128 -912 -2128 -928 2
LINE Normal -2096 -912 -2128 -912 2
LINE Normal -2112 -928 -2096 -912 2
LINE Normal -2096 -912 -2112 -928 2
LINE Normal -2112 -896 -2096 -912 2
LINE Normal -1968 -944 -1968 -992 2
LINE Normal -1856 -944 -1968 -944 2
LINE Normal -1856 -896 -1856 -944 2
LINE Normal -1872 -912 -1856 -896 2
LINE Normal -1856 -896 -1872 -912 2
LINE Normal -1840 -912 -1856 -896 2
LINE Normal -2304 -544 -2304 -1408 1
LINE Normal -1680 -1408 -1680 -544 1
LINE Normal -1680 -544 -2304 -544 1
LINE Normal -1680 -1408 -2304 -1408 1
