Version 4
SHEET 1 2240 680
WIRE -752 -1456 -848 -1456
WIRE -704 -1456 -752 -1456
WIRE -912 -1328 -944 -1328
WIRE -752 -1328 -752 -1456
WIRE -752 -1328 -832 -1328
WIRE -752 -1296 -752 -1328
WIRE -1056 -1248 -1056 -1328
WIRE -976 -1248 -976 -1264
WIRE -912 -1248 -976 -1248
WIRE -912 -1232 -912 -1248
WIRE -832 -1232 -912 -1232
WIRE -912 -1216 -912 -1232
WIRE -832 -1216 -832 -1232
WIRE -752 -1216 -832 -1216
WIRE -736 -1216 -752 -1216
WIRE -752 -1200 -752 -1216
WIRE -1840 -1072 -1888 -1072
WIRE -2032 -1056 -2080 -1056
WIRE -1936 -1056 -1984 -1056
WIRE -1888 -1056 -1888 -1072
WIRE -1504 -1040 -1536 -1040
WIRE -1456 -1040 -1504 -1040
WIRE -1328 -1040 -1392 -1040
WIRE -1248 -1040 -1328 -1040
WIRE -1072 -1040 -1104 -1040
WIRE -976 -1040 -992 -1040
WIRE -752 -1040 -784 -1040
WIRE -656 -1040 -672 -1040
WIRE -1504 -1024 -1504 -1040
WIRE -1328 -1024 -1328 -1040
WIRE -992 -1008 -992 -1040
WIRE -672 -1008 -672 -1040
WIRE -2032 -976 -2032 -1056
WIRE -1984 -976 -2032 -976
WIRE -1936 -976 -1936 -1056
WIRE -1888 -976 -1936 -976
WIRE -2080 -960 -2080 -976
WIRE -1504 -944 -1504 -960
WIRE -1424 -944 -1424 -976
WIRE -1424 -944 -1504 -944
WIRE -1328 -944 -1328 -960
WIRE -1328 -944 -1424 -944
WIRE -1424 -928 -1424 -944
WIRE -2032 -768 -2096 -768
WIRE -2032 -720 -2032 -768
WIRE -1920 -720 -1952 -720
WIRE -1920 -624 -1968 -624
WIRE -1920 -576 -1968 -576
WIRE 944 -560 944 -576
WIRE -544 -528 -608 -528
WIRE -448 -528 -544 -528
WIRE -208 -528 -352 -528
WIRE -544 -480 -544 -528
WIRE -448 -480 -448 -528
WIRE 224 -480 192 -480
WIRE 320 -480 304 -480
WIRE 1120 -448 1120 -464
WIRE 464 -432 464 -464
WIRE 944 -432 944 -480
WIRE 1040 -432 1040 -512
WIRE 1040 -432 944 -432
WIRE 1088 -432 1040 -432
WIRE -304 -416 -304 -432
WIRE 304 -416 304 -480
WIRE 432 -416 304 -416
WIRE 1344 -416 1152 -416
WIRE -352 -400 -352 -528
WIRE -352 -400 -448 -400
WIRE -336 -400 -352 -400
WIRE 672 -400 496 -400
WIRE 816 -400 752 -400
WIRE 1088 -400 816 -400
WIRE -208 -384 -208 -528
WIRE -208 -384 -272 -384
WIRE -160 -384 -208 -384
WIRE -64 -384 -160 -384
WIRE 48 -384 16 -384
WIRE 432 -384 48 -384
WIRE -768 -368 -832 -368
WIRE -672 -368 -704 -368
WIRE -624 -368 -672 -368
WIRE -544 -368 -544 -400
WIRE -544 -368 -560 -368
WIRE -336 -368 -544 -368
WIRE 48 -368 48 -384
WIRE 1120 -352 1120 -384
WIRE 464 -336 464 -368
WIRE 48 -288 48 -304
WIRE -672 -256 -672 -368
WIRE -432 -256 -672 -256
WIRE -160 -256 -160 -384
WIRE -160 -256 -352 -256
FLAG -2080 -960 0
FLAG -1840 -1072 Stimulus
FLAG -1920 -720 9V
IOPIN -1920 -720 Out
FLAG -2096 -688 0
FLAG -992 -1456 9V
IOPIN -992 -1456 In
FLAG -1920 -624 VoutBeatPulses
IOPIN -1920 -624 Out
FLAG -752 -1200 0
FLAG -1920 -576 VoutRateAnalogue
IOPIN -1920 -576 Out
FLAG -704 -1456 VoutBeatPulses
IOPIN -704 -1456 Out
FLAG -1424 -928 0
FLAG -1536 -1040 9V
IOPIN -1536 -1040 In
FLAG -1248 -1040 5V
IOPIN -1248 -1040 In
FLAG -1104 -1360 Stimulus
FLAG -304 -432 5V
IOPIN -304 -432 Out
FLAG -304 -352 0
FLAG 48 -288 0
FLAG 464 -336 0
FLAG 816 -336 0
FLAG 1120 -352 0
FLAG 464 -464 5V
IOPIN 464 -464 Out
FLAG 1120 -464 5V
IOPIN 1120 -464 Out
FLAG -832 -368 Stimulus
FLAG -896 -1040 0
FLAG -1104 -1040 5V
IOPIN -1104 -1040 Out
FLAG -992 -1008 2.5V
IOPIN -992 -1008 In
FLAG -576 -1040 0
FLAG -784 -1040 5V
IOPIN -784 -1040 Out
FLAG -672 -1008 1.5V
IOPIN -672 -1008 In
FLAG -608 -528 2.5V
IOPIN -608 -528 Out
FLAG 400 -480 0
FLAG 192 -480 5V
IOPIN 192 -480 Out
FLAG 944 -576 5V
IOPIN 944 -576 Out
FLAG 1040 -592 0
SYMBOL voltage -1984 -1072 R0
WINDOW 123 0 0 Left 0
WINDOW 39 0 0 Left 0
WINDOW 3 -89 197 Left 2
WINDOW 0 -13 54 Left 2
SYMATTR Value PWL file=PWLinput.csv
SYMATTR InstName V2
SYMBOL voltage -1888 -1072 R0
WINDOW 123 24 44 Left 2
WINDOW 39 0 0 Left 0
WINDOW 3 -386 233 Left 2
WINDOW 0 -11 56 Left 2
SYMATTR Value SINE({sineOffset} {sineAmplitude} {sineFreq})
SYMATTR InstName V3
SYMBOL voltage -2080 -1072 R0
WINDOW 123 0 0 Left 0
WINDOW 39 0 0 Left 0
WINDOW 3 3 160 Left 2
WINDOW 0 -13 55 Left 2
SYMATTR Value {dcAmplitude}
SYMATTR InstName V1
SYMBOL voltage -2096 -784 R0
WINDOW 123 24 44 Left 2
WINDOW 39 0 0 Left 0
WINDOW 3 -46 76 Left 2
WINDOW 0 -13 57 Left 2
SYMATTR Value 9
SYMATTR InstName V4
SYMBOL res -1936 -736 R90
WINDOW 0 -9 30 VBottom 2
WINDOW 3 34 56 VTop 2
SYMATTR InstName R_Sense
SYMATTR Value 0.010
SYMBOL res -944 -1440 R270
WINDOW 0 32 56 VTop 2
WINDOW 3 0 56 VBottom 2
SYMATTR InstName R1
SYMATTR Value 100
SYMBOL res -816 -1344 R90
WINDOW 0 0 56 VBottom 2
WINDOW 3 32 56 VTop 2
SYMATTR InstName R2
SYMATTR Value 5
SYMBOL res -736 -1200 R180
WINDOW 0 36 76 Left 2
WINDOW 3 36 40 Left 2
SYMATTR InstName R3
SYMATTR Value 5
SYMBOL res -960 -1264 R90
WINDOW 0 0 56 VBottom 2
WINDOW 3 32 56 VTop 2
SYMATTR InstName R4
SYMATTR Value 500k
SYMBOL LM7805 -1424 -1024 R0
SYMATTR InstName U1
SYMBOL cap -1344 -1024 R0
SYMATTR InstName C2
SYMATTR Value 0.1µ
SYMBOL cap -1520 -1024 R0
WINDOW 3 -56 48 Left 2
SYMATTR Value 0.33µ
SYMATTR InstName C1
SYMBOL Opamps\\opamp2 -304 -448 R0
SYMATTR InstName U4
SYMATTR Value TL081
SYMBOL cap -560 -384 R90
WINDOW 0 0 32 VBottom 2
WINDOW 3 40 14 VTop 2
SYMATTR InstName C8
SYMATTR Value 1.59µ
SYMBOL res -336 -272 R90
WINDOW 0 0 56 VBottom 2
WINDOW 3 32 56 VTop 2
SYMATTR InstName R5
SYMATTR Value 100k
SYMBOL cap -704 -384 R90
WINDOW 0 0 32 VBottom 2
WINDOW 3 32 32 VTop 2
SYMATTR InstName C3
SYMATTR Value 1.59µ
SYMBOL res -560 -496 R0
SYMATTR InstName R6
SYMATTR Value 100k
SYMBOL res -464 -496 R0
SYMATTR InstName R11
SYMATTR Value 100k
SYMBOL res 32 -400 R90
WINDOW 0 0 56 VBottom 2
WINDOW 3 32 56 VTop 2
SYMATTR InstName R9
SYMATTR Value 100k
SYMBOL cap 32 -368 R0
SYMATTR InstName C4
SYMATTR Value 636n
SYMBOL Opamps\\opamp2 464 -464 R0
SYMATTR InstName U2
SYMATTR Value TL081
SYMBOL cap 800 -400 R0
WINDOW 3 30 52 Left 2
SYMATTR Value 1000n
SYMATTR InstName C5
SYMBOL res 768 -416 R90
WINDOW 0 0 56 VBottom 2
WINDOW 3 32 56 VTop 2
SYMATTR InstName R12
SYMATTR Value 100k
SYMBOL Opamps\\opamp2 1120 -480 R0
SYMATTR InstName U3
SYMATTR Value TL081
SYMBOL res -1088 -1024 R270
WINDOW 0 32 56 VTop 2
WINDOW 3 0 56 VBottom 2
SYMATTR InstName R14
SYMATTR Value 100k
SYMBOL res -992 -1024 R270
WINDOW 0 32 56 VTop 2
WINDOW 3 0 56 VBottom 2
SYMATTR InstName R15
SYMATTR Value 100k
SYMBOL res -768 -1024 R270
WINDOW 0 32 56 VTop 2
WINDOW 3 0 56 VBottom 2
SYMATTR InstName R7
SYMATTR Value 100k
SYMBOL res -672 -1024 R270
WINDOW 0 32 56 VTop 2
WINDOW 3 0 56 VBottom 2
SYMATTR InstName R8
SYMATTR Value 42.857k
SYMBOL res 208 -464 R270
WINDOW 0 32 56 VTop 2
WINDOW 3 0 56 VBottom 2
SYMATTR InstName R10
SYMATTR Value 100k
SYMBOL res 304 -464 R270
WINDOW 0 32 56 VTop 2
WINDOW 3 0 56 VBottom 2
SYMATTR InstName R17
SYMATTR Value 100k
SYMBOL res 928 -576 R0
SYMATTR InstName R19
SYMATTR Value 100k
SYMBOL res 1024 -608 R0
SYMATTR InstName R21
SYMATTR Value 100k
TEXT -2080 -1120 Left 2 !.tran 0 {transtop} 0 {timestep}
TEXT -1952 -1168 Left 2 !.include E344cfg.txt
TEXT -2288 -1384 Left 2 ;Don't change these -- used for auto-assessments.\nYou may modify input files while developing.\nFor submission: \n  * Use only 9V supply \n  * Connect "Stimulus" to your input\n  * Connect "VoutXXXX" to your output signals.\n  * Only one label name per net.
TEXT -2280 -1168 Left 2 ;Config file:
TEXT -2280 -1120 Left 2 ;Analysis setup:
TEXT -2272 -744 Left 2 ;Battery
TEXT -2280 -1032 Left 2 ;Sensor-\nemulating \nstimulus
TEXT -2272 -608 Left 2 ;Assessed nets:\nConnect to your outputs
TEXT -1552 -1400 Left 2 ;AJ van Wijk,  21786275\nDC = 2V\nHeart rate pk = 49.5mV\nDesigning with 90bpm ~ 105bpm
TEXT -1624 -848 Left 2 !.incl TL081.lib
TEXT -1568 -1232 Left 2 ;Normalized just has different kinds of\n noise on it. Good to test for final thing\n.tran 0 {transtop} 0 {timestep} text
TEXT -912 -584 Left 2 ;Unity Gain Active High Pass Filter Second Order\nfc = 1Hz
TEXT 200 -592 Left 2 ;Comparator 1 Coniditioning
TEXT -80 -584 Left 2 ;Passive LPF\nfc = 2.5Hz
TEXT 656 -592 Left 2 ;RC Delay circuit\nwith Tau of 100ms
TEXT 992 -304 Left 2 ;Comparator 2 to change\n signal into square pulses.
TEXT -1632 -792 Left 2 !.incl TLC2272.lib
LINE Normal -1792 -1008 -1856 -1008 2
LINE Normal -1792 -864 -1792 -1008 2
LINE Normal -1808 -880 -1792 -864 2
LINE Normal -1792 -864 -1808 -880 2
LINE Normal -1776 -880 -1792 -864 2
LINE Normal -2128 -1008 -2112 -1008 2
LINE Normal -2128 -928 -2128 -1008 2
LINE Normal -2128 -912 -2128 -928 2
LINE Normal -2096 -912 -2128 -912 2
LINE Normal -2112 -928 -2096 -912 2
LINE Normal -2096 -912 -2112 -928 2
LINE Normal -2112 -896 -2096 -912 2
LINE Normal -1968 -944 -1968 -992 2
LINE Normal -1856 -944 -1968 -944 2
LINE Normal -1856 -896 -1856 -944 2
LINE Normal -1872 -912 -1856 -896 2
LINE Normal -1856 -896 -1872 -912 2
LINE Normal -1840 -912 -1856 -896 2
LINE Normal -2304 -544 -2304 -1408 1
LINE Normal -1680 -1408 -1680 -544 1
LINE Normal -1680 -544 -2304 -544 1
LINE Normal -1680 -1408 -2304 -1408 1
RECTANGLE Normal -144 -176 -992 -640 2
RECTANGLE Normal 128 -176 -144 -640 2
RECTANGLE Normal 608 -176 128 -640 2
RECTANGLE Normal 912 -176 608 -640 2
RECTANGLE Normal 1360 -176 912 -640 2
